*SPEF "ieee 1481-1999"
*DESIGN "alu"
*DATE "11:11:11 Fri 11 11, 1111"
*VENDOR "OpenRCX"
*PROGRAM "Parallel Extraction"
*VERSION "1.0"
*DESIGN_FLOW "NAME_SCOPE LOCAL" "PIN_CAP NONE"
*DIVIDER /
*DELIMITER :
*BUS_DELIMITER []
*T_UNIT 1 NS
*C_UNIT 1 PF
*R_UNIT 1 OHM
*L_UNIT 1 HENRY

*NAME_MAP
*3 a[0]
*4 a[1]
*5 a[2]
*6 a[3]
*7 a[4]
*8 a[5]
*9 a[6]
*10 a[7]
*11 b[0]
*12 b[1]
*13 b[2]
*14 b[3]
*15 b[4]
*16 b[5]
*17 b[6]
*18 b[7]
*19 op[0]
*20 op[1]
*21 op[2]
*22 result[0]
*23 result[1]
*24 result[2]
*25 result[3]
*26 result[4]
*27 result[5]
*28 result[6]
*29 result[7]
*30 _000_
*31 _001_
*32 _002_
*33 _003_
*34 _004_
*35 _005_
*36 _006_
*37 _007_
*38 _008_
*39 _009_
*40 _010_
*41 _011_
*42 _012_
*43 _013_
*44 _014_
*45 _015_
*46 _016_
*47 _017_
*48 _018_
*49 _019_
*50 _020_
*51 _021_
*52 _022_
*53 _023_
*54 _024_
*55 _025_
*56 _026_
*57 _027_
*58 _028_
*59 _029_
*60 _030_
*61 _031_
*62 _032_
*63 _033_
*64 _034_
*65 _035_
*66 _036_
*67 _037_
*68 _038_
*69 _039_
*70 _040_
*71 _041_
*72 _042_
*73 _043_
*74 _044_
*75 _045_
*76 _046_
*77 _047_
*78 _048_
*79 _049_
*80 _050_
*81 _051_
*82 _052_
*83 _053_
*84 _054_
*85 _055_
*86 _056_
*87 _057_
*88 _058_
*89 _059_
*90 _060_
*91 _061_
*92 _062_
*93 _063_
*94 _064_
*95 _065_
*96 _066_
*97 _067_
*98 _068_
*99 _069_
*100 _070_
*101 _071_
*102 _072_
*103 _073_
*104 _074_
*105 _075_
*106 _076_
*107 _077_
*108 _078_
*109 _079_
*110 _080_
*111 _081_
*112 _082_
*113 _083_
*114 net1
*115 net10
*116 net11
*117 net12
*118 net13
*119 net14
*120 net15
*121 net16
*122 net17
*123 net18
*124 net19
*125 net2
*126 net20
*127 net21
*128 net22
*129 net23
*130 net24
*131 net25
*132 net26
*133 net27
*134 net3
*135 net4
*136 net5
*137 net6
*138 net7
*139 net8
*140 net9
*141 FILLER_0_0_27
*142 FILLER_0_0_33
*143 FILLER_0_0_45
*144 FILLER_0_0_55
*145 FILLER_0_0_57
*146 FILLER_0_0_65
*147 FILLER_0_0_7
*148 FILLER_0_0_79
*149 FILLER_0_0_85
*150 FILLER_0_10_29
*151 FILLER_0_10_3
*152 FILLER_0_10_35
*153 FILLER_0_10_54
*154 FILLER_0_10_81
*155 FILLER_0_10_85
*156 FILLER_0_11_13
*157 FILLER_0_11_17
*158 FILLER_0_11_24
*159 FILLER_0_11_3
*160 FILLER_0_11_30
*161 FILLER_0_11_38
*162 FILLER_0_11_47
*163 FILLER_0_11_55
*164 FILLER_0_11_57
*165 FILLER_0_11_79
*166 FILLER_0_12_20
*167 FILLER_0_12_37
*168 FILLER_0_12_45
*169 FILLER_0_12_52
*170 FILLER_0_12_64
*171 FILLER_0_12_79
*172 FILLER_0_12_85
*173 FILLER_0_13_25
*174 FILLER_0_13_55
*175 FILLER_0_13_57
*176 FILLER_0_13_84
*177 FILLER_0_14_23
*178 FILLER_0_14_27
*179 FILLER_0_14_29
*180 FILLER_0_14_37
*181 FILLER_0_14_44
*182 FILLER_0_14_57
*183 FILLER_0_14_65
*184 FILLER_0_14_7
*185 FILLER_0_14_77
*186 FILLER_0_14_85
*187 FILLER_0_1_29
*188 FILLER_0_1_3
*189 FILLER_0_1_53
*190 FILLER_0_1_57
*191 FILLER_0_1_77
*192 FILLER_0_2_14
*193 FILLER_0_2_27
*194 FILLER_0_2_29
*195 FILLER_0_2_39
*196 FILLER_0_2_50
*197 FILLER_0_2_62
*198 FILLER_0_2_75
*199 FILLER_0_2_79
*200 FILLER_0_2_83
*201 FILLER_0_2_85
*202 FILLER_0_3_12
*203 FILLER_0_3_18
*204 FILLER_0_3_3
*205 FILLER_0_3_33
*206 FILLER_0_3_45
*207 FILLER_0_3_53
*208 FILLER_0_3_57
*209 FILLER_0_3_63
*210 FILLER_0_3_68
*211 FILLER_0_3_80
*212 FILLER_0_3_86
*213 FILLER_0_4_18
*214 FILLER_0_4_26
*215 FILLER_0_4_35
*216 FILLER_0_4_39
*217 FILLER_0_4_53
*218 FILLER_0_4_57
*219 FILLER_0_4_64
*220 FILLER_0_4_7
*221 FILLER_0_4_71
*222 FILLER_0_4_79
*223 FILLER_0_4_83
*224 FILLER_0_4_85
*225 FILLER_0_5_14
*226 FILLER_0_5_22
*227 FILLER_0_5_34
*228 FILLER_0_5_51
*229 FILLER_0_5_55
*230 FILLER_0_5_57
*231 FILLER_0_5_76
*232 FILLER_0_6_20
*233 FILLER_0_6_29
*234 FILLER_0_6_3
*235 FILLER_0_6_37
*236 FILLER_0_6_44
*237 FILLER_0_6_56
*238 FILLER_0_6_64
*239 FILLER_0_6_78
*240 FILLER_0_6_85
*241 FILLER_0_7_17
*242 FILLER_0_7_3
*243 FILLER_0_7_44
*244 FILLER_0_7_72
*245 FILLER_0_7_86
*246 FILLER_0_8_11
*247 FILLER_0_8_23
*248 FILLER_0_8_27
*249 FILLER_0_8_3
*250 FILLER_0_8_39
*251 FILLER_0_8_51
*252 FILLER_0_8_63
*253 FILLER_0_8_80
*254 FILLER_0_8_85
*255 FILLER_0_9_13
*256 FILLER_0_9_23
*257 FILLER_0_9_35
*258 FILLER_0_9_43
*259 FILLER_0_9_49
*260 FILLER_0_9_55
*261 FILLER_0_9_57
*262 FILLER_0_9_69
*263 FILLER_0_9_77
*264 FILLER_0_9_85
*265 FILLER_0_9_9
*266 PHY_0
*267 PHY_1
*268 PHY_10
*269 PHY_11
*270 PHY_12
*271 PHY_13
*272 PHY_14
*273 PHY_15
*274 PHY_16
*275 PHY_17
*276 PHY_18
*277 PHY_19
*278 PHY_2
*279 PHY_20
*280 PHY_21
*281 PHY_22
*282 PHY_23
*283 PHY_24
*284 PHY_25
*285 PHY_26
*286 PHY_27
*287 PHY_28
*288 PHY_29
*289 PHY_3
*290 PHY_4
*291 PHY_5
*292 PHY_6
*293 PHY_7
*294 PHY_8
*295 PHY_9
*296 TAP_30
*297 TAP_31
*298 TAP_32
*299 TAP_33
*300 TAP_34
*301 TAP_35
*302 TAP_36
*303 TAP_37
*304 TAP_38
*305 TAP_39
*306 TAP_40
*307 TAP_41
*308 TAP_42
*309 TAP_43
*310 TAP_44
*311 TAP_45
*312 TAP_46
*313 TAP_47
*314 TAP_48
*315 TAP_49
*316 TAP_50
*317 TAP_51
*318 TAP_52
*319 TAP_53
*320 TAP_54
*321 _084_
*322 _085_
*323 _086_
*324 _087_
*325 _088_
*326 _089_
*327 _090_
*328 _091_
*329 _092_
*330 _093_
*331 _094_
*332 _095_
*333 _096_
*334 _097_
*335 _098_
*336 _099_
*337 _100_
*338 _101_
*339 _102_
*340 _103_
*341 _104_
*342 _105_
*343 _106_
*344 _107_
*345 _108_
*346 _109_
*347 _110_
*348 _111_
*349 _112_
*350 _113_
*351 _114_
*352 _115_
*353 _116_
*354 _117_
*355 _118_
*356 _119_
*357 _120_
*358 _121_
*359 _122_
*360 _123_
*361 _124_
*362 _125_
*363 _126_
*364 _127_
*365 _128_
*366 _129_
*367 _130_
*368 _131_
*369 _132_
*370 _133_
*371 _134_
*372 _135_
*373 _136_
*374 _137_
*375 _138_
*376 _139_
*377 _140_
*378 _141_
*379 _142_
*380 _143_
*381 _144_
*382 _145_
*383 _146_
*384 _147_
*385 _148_
*386 _149_
*387 _150_
*388 _151_
*389 _152_
*390 _153_
*391 _154_
*392 _155_
*393 _156_
*394 _157_
*395 _158_
*396 _159_
*397 _160_
*398 _161_
*399 _162_
*400 _163_
*401 _164_
*402 _165_
*403 _166_
*404 _167_
*405 _168_
*406 _169_
*407 _170_
*408 _171_
*409 _172_
*410 _173_
*411 _174_
*412 _175_
*413 input1
*414 input10
*415 input11
*416 input12
*417 input13
*418 input14
*419 input15
*420 input16
*421 input17
*422 input18
*423 input19
*424 input2
*425 input3
*426 input4
*427 input5
*428 input6
*429 input7
*430 input8
*431 input9
*432 output20
*433 output21
*434 output22
*435 output23
*436 output24
*437 output25
*438 output26
*439 output27

*PORTS
a[0] I
a[1] I
a[2] I
a[3] I
a[4] I
a[5] I
a[6] I
a[7] I
b[0] I
b[1] I
b[2] I
b[3] I
b[4] I
b[5] I
b[6] I
b[7] I
op[0] I
op[1] I
op[2] I
result[0] O
result[1] O
result[2] O
result[3] O
result[4] O
result[5] O
result[6] O
result[7] O

*D_NET *3 0.00213008
*CONN
*P a[0] I
*I *413:A I *D sky130_fd_sc_hd__buf_1
*CAP
1 a[0] 0.000943398
2 *413:A 0.000943398
3 *413:A *398:B1 2.88519e-05
4 *413:A *430:A 0
5 *413:A *65:24 0.000209119
6 *413:A *123:10 5.31158e-06
*RES
1 a[0] *413:A 14.4577 
*END

*D_NET *4 0.000595142
*CONN
*P a[1] I
*I *424:A I *D sky130_fd_sc_hd__dlymetal6s2s_1
*CAP
1 a[1] 0.000297571
2 *424:A 0.000297571
3 *424:A result[7] 0
*RES
1 a[1] *424:A 5.86677 
*END

*D_NET *5 0.00121743
*CONN
*P a[2] I
*I *425:A I *D sky130_fd_sc_hd__clkbuf_2
*CAP
1 a[2] 0.000544794
2 *425:A 0.000544794
3 *425:A result[4] 0
4 *425:A *398:B1 7.23533e-05
5 *425:A *436:A 3.00381e-05
6 *425:A *121:10 2.54522e-05
*RES
1 a[2] *425:A 14.265 
*END

*D_NET *6 0.000455624
*CONN
*P a[3] I
*I *426:A I *D sky130_fd_sc_hd__dlymetal6s2s_1
*CAP
1 a[3] 0.000227812
2 *426:A 0.000227812
3 *426:A *428:A 0
*RES
1 a[3] *426:A 6.38543 
*END

*D_NET *7 0.000529284
*CONN
*P a[4] I
*I *427:A I *D sky130_fd_sc_hd__clkbuf_2
*CAP
1 a[4] 0.000264642
2 *427:A 0.000264642
3 *427:A *416:A 0
*RES
1 a[4] *427:A 6.73043 
*END

*D_NET *8 0.000893761
*CONN
*P a[5] I
*I *428:A I *D sky130_fd_sc_hd__dlymetal6s2s_1
*CAP
1 a[5] 0.000426408
2 *428:A 0.000426408
3 *428:A *417:A 4.09447e-05
4 *426:A *428:A 0
*RES
1 a[5] *428:A 7.2237 
*END

*D_NET *9 0.00221953
*CONN
*P a[6] I
*I *429:A I *D sky130_fd_sc_hd__clkbuf_2
*CAP
1 a[6] 0.000961661
2 *429:A 0.000961661
3 *429:A result[1] 3.91715e-05
4 *429:A *343:A2 8.64421e-05
5 *429:A *343:B1 4.66108e-05
6 *429:A *414:A 0.00012398
7 *429:A *415:A 0
*RES
1 a[6] *429:A 19.23 
*END

*D_NET *10 0.00146555
*CONN
*P a[7] I
*I *430:A I *D sky130_fd_sc_hd__buf_1
*CAP
1 a[7] 0.000675611
2 *430:A 0.000675611
3 *430:A *114:12 0.000114326
4 *413:A *430:A 0
*RES
1 a[7] *430:A 16.455 
*END

*D_NET *11 0.0017892
*CONN
*P b[0] I
*I *431:A I *D sky130_fd_sc_hd__buf_2
*CAP
1 b[0] 0.00045345
2 *431:A 0.00045345
3 *431:A *419:A 0.000122331
4 *431:A *420:A 0.000759973
*RES
1 b[0] *431:A 12.5452 
*END

*D_NET *12 0.00107265
*CONN
*P b[1] I
*I *414:A I *D sky130_fd_sc_hd__clkbuf_2
*CAP
1 b[1] 0.000474334
2 *414:A 0.000474334
3 *429:A *414:A 0.00012398
*RES
1 b[1] *414:A 12.315 
*END

*D_NET *13 0.00190839
*CONN
*P b[2] I
*I *415:A I *D sky130_fd_sc_hd__buf_2
*CAP
1 b[2] 0.000858804
2 *415:A 0.000858804
3 *415:A result[1] 0.000190782
4 *429:A *415:A 0
*RES
1 b[2] *415:A 16.792 
*END

*D_NET *14 0.000603262
*CONN
*P b[3] I
*I *416:A I *D sky130_fd_sc_hd__clkbuf_2
*CAP
1 b[3] 0.000301631
2 *416:A 0.000301631
3 *416:A *387:B1 0
4 *427:A *416:A 0
*RES
1 b[3] *416:A 7.49543 
*END

*D_NET *15 0.00102561
*CONN
*P b[4] I
*I *417:A I *D sky130_fd_sc_hd__clkbuf_2
*CAP
1 b[4] 0.000492334
2 *417:A 0.000492334
3 *428:A *417:A 4.09447e-05
*RES
1 b[4] *417:A 11.97 
*END

*D_NET *16 0.00151381
*CONN
*P b[5] I
*I *418:A I *D sky130_fd_sc_hd__clkbuf_2
*CAP
1 b[5] 0.000756904
2 *418:A 0.000756904
3 *418:A *422:A 0
*RES
1 b[5] *418:A 15.96 
*END

*D_NET *17 0.00146904
*CONN
*P b[6] I
*I *419:A I *D sky130_fd_sc_hd__clkbuf_2
*CAP
1 b[6] 0.000673353
2 *419:A 0.000673353
3 *431:A *419:A 0.000122331
*RES
1 b[6] *419:A 15.27 
*END

*D_NET *18 0.00215178
*CONN
*P b[7] I
*I *420:A I *D sky130_fd_sc_hd__dlymetal6s2s_1
*CAP
1 b[7] 0.000482429
2 *420:A 0.000482429
3 *420:A *120:16 0.000426948
4 *431:A *420:A 0.000759973
*RES
1 b[7] *420:A 15.795 
*END

*D_NET *19 0.00124534
*CONN
*P op[0] I
*I *421:A I *D sky130_fd_sc_hd__clkbuf_2
*CAP
1 op[0] 0.000406316
2 *421:A 0.000406316
3 *421:A result[6] 0.000383777
4 *421:A *438:A 4.89295e-05
*RES
1 op[0] *421:A 12.66 
*END

*D_NET *20 0.000568667
*CONN
*P op[1] I
*I *422:A I *D sky130_fd_sc_hd__clkbuf_2
*CAP
1 op[1] 0.000284334
2 *422:A 0.000284334
3 *418:A *422:A 0
*RES
1 op[1] *422:A 7.2087 
*END

*D_NET *21 0.00112497
*CONN
*P op[2] I
*I *423:A I *D sky130_fd_sc_hd__clkbuf_2
*CAP
1 op[2] 0.000479634
2 *423:A 0.000479634
3 *423:A *121:10 0.000165698
*RES
1 op[2] *423:A 12.165 
*END

*D_NET *22 0.00056323
*CONN
*P result[0] O
*I *432:X O *D sky130_fd_sc_hd__clkbuf_4
*CAP
1 result[0] 0.000281615
2 *432:X 0.000281615
3 result[0] *432:A 0
*RES
1 *432:X result[0] 5.55177 
*END

*D_NET *23 0.0012821
*CONN
*P result[1] O
*I *433:X O *D sky130_fd_sc_hd__clkbuf_4
*CAP
1 result[1] 0.000496772
2 *433:X 0.000496772
3 result[1] *343:B1 1.19928e-05
4 result[1] *433:A 4.66108e-05
5 *415:A result[1] 0.000190782
6 *429:A result[1] 3.91715e-05
*RES
1 *433:X result[1] 9.8637 
*END

*D_NET *24 0.000917783
*CONN
*P result[2] O
*I *434:X O *D sky130_fd_sc_hd__clkbuf_4
*CAP
1 result[2] 0.000448955
2 *434:X 0.000448955
3 result[2] *435:A 1.9872e-05
*RES
1 *434:X result[2] 11.31 
*END

*D_NET *25 0.000897431
*CONN
*P result[3] O
*I *435:X O *D sky130_fd_sc_hd__clkbuf_4
*CAP
1 result[3] 0.000448716
2 *435:X 0.000448716
*RES
1 *435:X result[3] 11.55 
*END

*D_NET *26 0.00104702
*CONN
*P result[4] O
*I *436:X O *D sky130_fd_sc_hd__clkbuf_4
*CAP
1 result[4] 0.000478894
2 *436:X 0.000478894
3 result[4] *436:A 2.68526e-05
4 result[4] *121:10 6.23768e-05
5 *425:A result[4] 0
*RES
1 *436:X result[4] 11.43 
*END

*D_NET *27 0.000721197
*CONN
*P result[5] O
*I *437:X O *D sky130_fd_sc_hd__clkbuf_4
*CAP
1 result[5] 0.000256928
2 *437:X 0.000256928
3 result[5] *65:111 0.000103671
4 result[5] *137:20 0.000103671
*RES
1 *437:X result[5] 5.92503 
*END

*D_NET *28 0.00231157
*CONN
*P result[6] O
*I *438:X O *D sky130_fd_sc_hd__clkbuf_4
*CAP
1 result[6] 0.000957334
2 *438:X 0.000957334
3 result[6] *438:A 1.31297e-05
4 *421:A result[6] 0.000383777
*RES
1 *438:X result[6] 13.5702 
*END

*D_NET *29 0.000930374
*CONN
*P result[7] O
*I *439:X O *D sky130_fd_sc_hd__buf_2
*CAP
1 result[7] 0.000414092
2 *439:X 0.000414092
3 result[7] *114:12 0.00010219
4 *424:A result[7] 0
*RES
1 *439:X result[7] 6.09983 
*END

*D_NET *30 0.00101376
*CONN
*I *403:B1 I *D sky130_fd_sc_hd__o211a_1
*I *397:A I *D sky130_fd_sc_hd__xnor2_1
*I *393:Y O *D sky130_fd_sc_hd__xnor2_1
*CAP
1 *403:B1 1.2736e-05
2 *397:A 7.46393e-05
3 *393:Y 0.000101938
4 *30:14 0.000189314
5 *397:A *403:A1 4.12409e-05
6 *397:A *403:C1 0.000195953
7 *397:A *52:34 0.000234181
8 *403:B1 *403:A1 5.19006e-06
9 *30:14 *403:A1 4.80058e-05
10 *30:14 *32:14 7.1624e-05
11 *30:14 *52:26 3.89366e-05
*RES
1 *393:Y *30:14 7.88 
2 *30:14 *397:A 4.48 
3 *30:14 *403:B1 1.96 
*END

*D_NET *31 0.000893491
*CONN
*I *396:A1 I *D sky130_fd_sc_hd__o21ai_1
*I *403:A1 I *D sky130_fd_sc_hd__o211a_1
*I *394:X O *D sky130_fd_sc_hd__o211a_1
*CAP
1 *396:A1 0
2 *403:A1 0.000198284
3 *394:X 7.08529e-05
4 *31:8 0.000269136
5 *403:A1 *403:C1 1.14169e-05
6 *403:A1 *52:70 0.000113572
7 *31:8 *52:70 0.000135792
8 *397:A *403:A1 4.12409e-05
9 *403:B1 *403:A1 5.19006e-06
10 *30:14 *403:A1 4.80058e-05
*RES
1 *394:X *31:8 5.235 
2 *31:8 *403:A1 7.185 
3 *31:8 *396:A1 3.6 
*END

*D_NET *32 0.00210246
*CONN
*I *396:A2 I *D sky130_fd_sc_hd__o21ai_1
*I *403:A2 I *D sky130_fd_sc_hd__o211a_1
*I *395:Y O *D sky130_fd_sc_hd__nand2_1
*CAP
1 *396:A2 0.000258108
2 *403:A2 0
3 *395:Y 0.000440809
4 *32:14 0.000698917
5 *396:A2 *436:A 4.27041e-05
6 *396:A2 *52:26 3.75882e-06
7 *396:A2 *52:70 0.000116975
8 *32:14 *395:A 1.14169e-05
9 *32:14 *401:A2 5.5191e-05
10 *32:14 *401:B1 3.16334e-05
11 *32:14 *438:A 8.44149e-05
12 *32:14 *52:26 0.000117026
13 *32:14 *52:30 9.91024e-05
14 *32:14 *52:70 2.68111e-05
15 *32:14 *138:28 4.39734e-05
16 *30:14 *32:14 7.1624e-05
*RES
1 *395:Y *32:14 10.965 
2 *32:14 *403:A2 3.6 
3 *32:14 *396:A2 7.74 
*END

*D_NET *33 0.000658222
*CONN
*I *397:B I *D sky130_fd_sc_hd__xnor2_1
*I *396:Y O *D sky130_fd_sc_hd__o21ai_1
*CAP
1 *397:B 0.00012886
2 *396:Y 0.00012886
3 *397:B *396:B1 0.000113891
4 *397:B *436:A 0.000120576
5 *397:B *54:76 0.00013475
6 *397:B *102:27 3.12855e-05
*RES
1 *396:Y *397:B 9.975 
*END

*D_NET *34 0.000498143
*CONN
*I *401:A2 I *D sky130_fd_sc_hd__a21o_1
*I *397:Y O *D sky130_fd_sc_hd__xnor2_1
*CAP
1 *401:A2 0.000172819
2 *397:Y 0.000172819
3 *401:A2 *393:B 0
4 *401:A2 *401:B1 4.77719e-05
5 *401:A2 *52:30 2.47705e-05
6 *401:A2 *54:76 2.47705e-05
7 *32:14 *401:A2 5.5191e-05
*RES
1 *397:Y *401:A2 10.53 
*END

*D_NET *35 0.000445871
*CONN
*I *399:B2 I *D sky130_fd_sc_hd__o22a_1
*I *398:Y O *D sky130_fd_sc_hd__a21oi_1
*CAP
1 *399:B2 7.82971e-05
2 *398:Y 7.82971e-05
3 *399:B2 *398:A1 0.000135331
4 *399:B2 *436:A 3.18517e-05
5 *399:B2 *113:14 7.21318e-05
6 *399:B2 *124:22 4.99619e-05
*RES
1 *398:Y *399:B2 9.285 
*END

*D_NET *36 0.000643869
*CONN
*I *400:B1 I *D sky130_fd_sc_hd__a31o_1
*I *399:X O *D sky130_fd_sc_hd__o22a_1
*CAP
1 *400:B1 0.000156387
2 *399:X 0.000156387
3 *400:B1 *406:A 0.000156767
4 *400:B1 *113:14 6.04361e-05
5 *400:B1 *138:34 0.000113891
*RES
1 *399:X *400:B1 10.065 
*END

*D_NET *37 0.000601029
*CONN
*I *401:B1 I *D sky130_fd_sc_hd__a21o_1
*I *400:X O *D sky130_fd_sc_hd__a31o_1
*CAP
1 *401:B1 0.00023648
2 *400:X 0.00023648
3 *401:B1 *52:30 4.86642e-05
4 *401:A2 *401:B1 4.77719e-05
5 *32:14 *401:B1 3.16334e-05
*RES
1 *400:X *401:B1 11.07 
*END

*D_NET *38 0.000922203
*CONN
*I *408:A I *D sky130_fd_sc_hd__or3_1
*I *407:A1 I *D sky130_fd_sc_hd__o21ai_1
*I *402:X O *D sky130_fd_sc_hd__and2b_1
*CAP
1 *408:A 0
2 *407:A1 0.000168704
3 *402:X 6.61114e-05
4 *38:6 0.000234815
5 *407:A1 *407:A2 4.89295e-05
6 *407:A1 *408:C 7.4027e-05
7 *407:A1 *412:A2 2.69153e-05
8 *407:A1 *62:20 0.000141599
9 *38:6 *124:22 0.000161101
*RES
1 *402:X *38:6 3.085 
2 *38:6 *407:A1 8.99 
3 *38:6 *408:A 1.6 
*END

*D_NET *39 0.0024408
*CONN
*I *408:B I *D sky130_fd_sc_hd__or3_1
*I *407:A2 I *D sky130_fd_sc_hd__o21ai_1
*I *403:X O *D sky130_fd_sc_hd__o211a_1
*CAP
1 *408:B 0.000227511
2 *407:A2 0.000301399
3 *403:X 0.000271307
4 *39:6 0.000800217
5 *407:A2 *62:20 0
6 *407:A2 *63:16 0.000288024
7 *407:A2 *124:22 0.000166346
8 *408:B *52:26 0.000103823
9 *408:B *62:20 3.72007e-05
10 *408:B *138:20 6.88421e-05
11 *39:6 *52:26 0.000127197
12 *407:A1 *407:A2 4.89295e-05
*RES
1 *403:X *39:6 4.81 
2 *39:6 *407:A2 11.555 
3 *39:6 *408:B 8.99 
*END

*D_NET *40 0.00128268
*CONN
*I *406:A I *D sky130_fd_sc_hd__xnor2_1
*I *404:X O *D sky130_fd_sc_hd__o31a_1
*CAP
1 *406:A 0.000320932
2 *404:X 0.000320932
3 *406:A *399:A1 4.66108e-05
4 *406:A *399:B1 0.00030566
5 *406:A *411:B1 5.80209e-05
6 *406:A *119:24 7.37593e-05
7 *400:B1 *406:A 0.000156767
*RES
1 *404:X *406:A 9.53 
*END

*D_NET *41 0.000837541
*CONN
*I *406:B I *D sky130_fd_sc_hd__xnor2_1
*I *405:X O *D sky130_fd_sc_hd__xor2_1
*CAP
1 *406:B 0.000156678
2 *405:X 0.000156678
3 *406:B *405:B 0.000134123
4 *406:B *411:A1 4.77807e-05
5 *406:B *411:B1 0.000209455
6 *406:B *42:10 0.000132827
*RES
1 *405:X *406:B 11.535 
*END

*D_NET *42 0.00112286
*CONN
*I *408:C I *D sky130_fd_sc_hd__or3_1
*I *407:B1 I *D sky130_fd_sc_hd__o21ai_1
*I *406:Y O *D sky130_fd_sc_hd__xnor2_1
*CAP
1 *408:C 0.000146523
2 *407:B1 0
3 *406:Y 0.000170472
4 *42:10 0.000316995
5 *408:C *62:20 5.57441e-05
6 *42:10 *411:A1 2.69217e-05
7 *42:10 *412:B1 3.6668e-05
8 *42:10 *62:20 5.13924e-05
9 *42:10 *139:14 0.000111293
10 *406:B *42:10 0.000132827
11 *407:A1 *408:C 7.4027e-05
*RES
1 *406:Y *42:10 7.47 
2 *42:10 *407:B1 3.6 
3 *42:10 *408:C 6.405 
*END

*D_NET *43 0.00125888
*CONN
*I *412:A2 I *D sky130_fd_sc_hd__a31o_1
*I *407:Y O *D sky130_fd_sc_hd__o21ai_1
*CAP
1 *412:A2 0.000231125
2 *407:Y 0.000231125
3 *412:A2 *412:A3 0.000114649
4 *412:A2 *412:B1 0.000127897
5 *412:A2 *62:20 0.000157401
6 *412:A2 *65:24 0.000234539
7 *412:A2 *124:26 0.000135231
8 *407:A1 *412:A2 2.69153e-05
*RES
1 *407:Y *412:A2 13.92 
*END

*D_NET *44 0.000612152
*CONN
*I *412:A3 I *D sky130_fd_sc_hd__a31o_1
*I *408:X O *D sky130_fd_sc_hd__or3_1
*CAP
1 *412:A3 0.000126949
2 *408:X 0.000126949
3 *412:A3 *326:A 8.23457e-05
4 *412:A3 *65:24 0.000114649
5 *412:A3 *124:22 4.66108e-05
6 *412:A2 *412:A3 0.000114649
*RES
1 *408:X *412:A3 9.72 
*END

*D_NET *45 0.000221709
*CONN
*I *410:B1 I *D sky130_fd_sc_hd__a31o_1
*I *409:Y O *D sky130_fd_sc_hd__a21oi_1
*CAP
1 *410:B1 4.35043e-05
2 *409:Y 4.35043e-05
3 *410:B1 *409:A1 8.80267e-05
4 *410:B1 *119:24 4.66742e-05
*RES
1 *409:Y *410:B1 4.355 
*END

*D_NET *46 0.000524338
*CONN
*I *411:B2 I *D sky130_fd_sc_hd__o22a_1
*I *410:X O *D sky130_fd_sc_hd__a31o_1
*CAP
1 *411:B2 0.000102605
2 *410:X 0.000102605
3 *411:B2 *405:B 8.41766e-05
4 *411:B2 *410:A3 0.000121702
5 *411:B2 *119:24 8.65961e-05
6 *411:B2 *121:14 2.66532e-05
*RES
1 *410:X *411:B2 9.63 
*END

*D_NET *47 0.001463
*CONN
*I *412:B1 I *D sky130_fd_sc_hd__a31o_1
*I *411:X O *D sky130_fd_sc_hd__o22a_1
*CAP
1 *412:B1 0.000328148
2 *411:X 0.000328148
3 *412:B1 *405:B 0.000132821
4 *412:B1 *410:A3 3.72081e-05
5 *412:B1 *411:B1 1.1392e-05
6 *412:B1 *62:20 0.000314354
7 *412:B1 *65:24 1.11338e-05
8 *412:B1 *124:26 0.000135231
9 *412:A2 *412:B1 0.000127897
10 *42:10 *412:B1 3.6668e-05
*RES
1 *411:X *412:B1 15.84 
*END

*D_NET *48 0.000773066
*CONN
*I *324:A1 I *D sky130_fd_sc_hd__o21ai_1
*I *321:Y O *D sky130_fd_sc_hd__a21oi_1
*CAP
1 *324:A1 0.000258496
2 *321:Y 0.000258496
3 *324:A1 *323:A1 4.0956e-05
4 *324:A1 *323:A2 4.90377e-05
5 *324:A1 *323:B1 6.69608e-06
6 *324:A1 *323:B2 1.87449e-05
7 *324:A1 *324:A2 3.71438e-05
8 *324:A1 *324:B1 2.49909e-05
9 *324:A1 *125:14 7.14241e-05
10 *324:A1 *140:54 7.08076e-06
*RES
1 *321:Y *324:A1 11.7825 
*END

*D_NET *49 0.00174069
*CONN
*I *336:B I *D sky130_fd_sc_hd__nor2_2
*I *324:A2 I *D sky130_fd_sc_hd__o21ai_1
*I *322:X O *D sky130_fd_sc_hd__or2b_1
*CAP
1 *336:B 7.95629e-05
2 *324:A2 0.000306717
3 *322:X 0.000142431
4 *49:10 0.000528711
5 *324:A2 *323:A1 4.93439e-05
6 *324:A2 *323:B1 6.77382e-05
7 *324:A2 *324:B1 2.49909e-05
8 *324:A2 *124:48 1.29858e-05
9 *336:B *65:24 0.000148092
10 *336:B *65:60 5.16418e-05
11 *336:B *125:14 0.000110542
12 *49:10 *439:A 3.08892e-05
13 *49:10 *65:24 9.31397e-05
14 *49:10 *123:25 8.73389e-06
15 *49:10 *125:14 4.80233e-05
16 *324:A1 *324:A2 3.71438e-05
*RES
1 *322:X *49:10 5.865 
2 *49:10 *324:A2 7.515 
3 *49:10 *336:B 6 
*END

*D_NET *50 0.000154141
*CONN
*I *324:B1 I *D sky130_fd_sc_hd__o21ai_1
*I *323:X O *D sky130_fd_sc_hd__a221o_1
*CAP
1 *324:B1 3.70252e-05
2 *323:X 3.70252e-05
3 *324:B1 *323:A1 3.01092e-05
4 *324:A1 *324:B1 2.49909e-05
5 *324:A2 *324:B1 2.49909e-05
*RES
1 *323:X *324:B1 4.01 
*END

*D_NET *51 0.000575448
*CONN
*I *325:B1 I *D sky130_fd_sc_hd__o21a_1
*I *324:Y O *D sky130_fd_sc_hd__o21ai_1
*CAP
1 *325:B1 0.000167266
2 *324:Y 0.000167266
3 *325:B1 *334:A 2.97802e-05
4 *325:B1 *114:29 3.62197e-05
5 *325:B1 *114:44 0.000174916
*RES
1 *324:Y *325:B1 10.875 
*END

*D_NET *52 0.012948
*CONN
*I *412:A1 I *D sky130_fd_sc_hd__a31o_1
*I *401:A1 I *D sky130_fd_sc_hd__a21o_1
*I *343:A1 I *D sky130_fd_sc_hd__a21o_1
*I *360:B1 I *D sky130_fd_sc_hd__o21ai_1
*I *349:B1 I *D sky130_fd_sc_hd__o21ai_1
*I *375:A1 I *D sky130_fd_sc_hd__a31o_1
*I *386:B1 I *D sky130_fd_sc_hd__o21a_1
*I *326:Y O *D sky130_fd_sc_hd__nor2_2
*CAP
1 *412:A1 0
2 *401:A1 0
3 *343:A1 0.0010248
4 *360:B1 2.37397e-05
5 *349:B1 2.57955e-05
6 *375:A1 0.000119314
7 *386:B1 0.000314367
8 *326:Y 0.000236612
9 *52:95 0.00178557
10 *52:70 0.00116679
11 *52:34 0.000703262
12 *52:30 0.000785875
13 *52:26 0.000828757
14 *52:16 0.000953038
15 *343:A1 *340:A1 0.000123955
16 *343:A1 *343:A2 3.6227e-05
17 *343:A1 *343:B1 3.51072e-05
18 *343:A1 *352:A1 0.000383464
19 *343:A1 *353:A2 3.81676e-05
20 *343:A1 *360:A1 0
21 *343:A1 *361:B1 0
22 *343:A1 *434:A 8.64421e-05
23 *343:A1 *63:81 2.14725e-05
24 *343:A1 *115:22 9.77048e-06
25 *343:A1 *115:30 6.86289e-05
26 *343:A1 *125:48 6.33178e-05
27 *343:A1 *125:57 0.000347313
28 *349:B1 *140:25 5.29669e-05
29 *360:B1 *361:B1 6.69608e-06
30 *360:B1 *434:A 1.41095e-05
31 *360:B1 *63:81 8.52845e-05
32 *375:A1 *384:B 0.000111966
33 *375:A1 *92:8 5.31158e-06
34 *386:B1 *385:A 5.00325e-05
35 *386:B1 *385:B 4.63218e-05
36 *386:B1 *99:10 0.000170906
37 *386:B1 *102:16 0
38 *386:B1 *140:10 0.000309432
39 *52:16 *65:24 0.000137095
40 *52:16 *123:25 0.000137095
41 *52:26 *393:B 1.08758e-05
42 *52:26 *436:A 0.000131243
43 *52:26 *113:14 8.53113e-06
44 *52:26 *138:28 0.00010723
45 *52:34 *403:C1 2.747e-05
46 *52:70 *54:76 0
47 *52:70 *73:16 0.000158245
48 *52:70 *134:16 0
49 *52:95 *349:A2 0.000132821
50 *52:95 *350:B 1.65129e-05
51 *52:95 *352:B2 2.69443e-06
52 *52:95 *353:B1 3.1191e-05
53 *52:95 *358:A 4.50424e-05
54 *52:95 *62:98 0.000336276
55 *52:95 *65:101 2.20014e-05
56 *52:95 *73:16 2.87133e-05
57 *52:95 *115:30 0
58 *52:95 *115:38 0
59 *52:95 *116:49 0.000289902
60 *52:95 *140:25 9.96594e-05
61 *396:A2 *52:26 3.75882e-06
62 *396:A2 *52:70 0.000116975
63 *397:A *52:34 0.000234181
64 *401:A2 *52:30 2.47705e-05
65 *401:B1 *52:30 4.86642e-05
66 *403:A1 *52:70 0.000113572
67 *408:B *52:26 0.000103823
68 *30:14 *52:26 3.89366e-05
69 *31:8 *52:70 0.000135792
70 *32:14 *52:26 0.000117026
71 *32:14 *52:30 9.91024e-05
72 *32:14 *52:70 2.68111e-05
73 *39:6 *52:26 0.000127197
*RES
1 *326:Y *52:16 9.875 
2 *52:16 *52:26 16.435 
3 *52:26 *52:30 4.4 
4 *52:30 *52:34 6.245 
5 *52:34 *386:B1 12.47 
6 *52:34 *375:A1 8 
7 *52:30 *52:70 10.37 
8 *52:70 *349:B1 2.41 
9 *52:70 *52:95 20.63 
10 *52:95 *360:B1 2.395 
11 *52:95 *343:A1 20.765 
12 *52:26 *401:A1 1.6 
13 *52:16 *412:A1 1.6 
*END

*D_NET *53 0.000838576
*CONN
*I *328:A I *D sky130_fd_sc_hd__buf_2
*I *327:X O *D sky130_fd_sc_hd__or3b_1
*CAP
1 *328:A 0.000317102
2 *327:X 0.000317102
3 *328:A *337:A_N 0.000152927
4 *328:A *337:C 5.14454e-05
*RES
1 *327:X *328:A 7.37 
*END

*D_NET *54 0.00978849
*CONN
*I *330:B I *D sky130_fd_sc_hd__nand3b_1
*I *329:A2 I *D sky130_fd_sc_hd__a21bo_1
*I *391:A2 I *D sky130_fd_sc_hd__a21oi_1
*I *404:B1 I *D sky130_fd_sc_hd__o31a_1
*I *366:B1 I *D sky130_fd_sc_hd__o41a_1
*I *345:B1 I *D sky130_fd_sc_hd__o21a_1
*I *354:A2 I *D sky130_fd_sc_hd__a21o_1
*I *377:A2 I *D sky130_fd_sc_hd__a21o_1
*I *328:X O *D sky130_fd_sc_hd__buf_2
*CAP
1 *330:B 0.000103036
2 *329:A2 1.70465e-05
3 *391:A2 0
4 *404:B1 0.000134684
5 *366:B1 0
6 *345:B1 0.00022006
7 *354:A2 0
8 *377:A2 0.000325689
9 *328:X 8.84652e-05
10 *54:104 0.000425122
11 *54:76 0.000919421
12 *54:43 0.000346812
13 *54:37 0.000207703
14 *54:14 0.00108566
15 *54:12 0.00190136
16 *54:8 0.00083111
17 *329:A2 *330:A_N 2.61557e-05
18 *330:B *330:A_N 0.000138354
19 *330:B *331:C 3.12916e-05
20 *330:B *332:A2 1.1392e-05
21 *330:B *332:B1 0.000119703
22 *345:B1 *355:A 1.16578e-05
23 *345:B1 *438:A 0.000137263
24 *345:B1 *117:31 0.000223579
25 *377:A2 *367:B 0.000121643
26 *377:A2 *377:A1 8.48394e-06
27 *377:A2 *89:8 1.16554e-05
28 *377:A2 *90:10 8.23234e-05
29 *377:A2 *118:10 2.54898e-05
30 *377:A2 *118:12 3.87166e-05
31 *377:A2 *118:20 1.05476e-05
32 *404:B1 *404:A3 0.000107554
33 *404:B1 *120:31 8.64421e-05
34 *54:8 *122:10 0
35 *54:8 *122:12 0
36 *54:8 *134:16 0.000185512
37 *54:12 *73:16 6.42229e-05
38 *54:14 *369:C1 9.31337e-05
39 *54:14 *73:16 9.76407e-06
40 *54:14 *81:29 0.000110273
41 *54:37 *438:A 7.41023e-05
42 *54:43 *366:A3 0.000156975
43 *54:43 *438:A 0.000154863
44 *54:76 *392:B 1.42229e-05
45 *54:76 *395:B 0
46 *54:76 *396:B1 2.3228e-05
47 *54:76 *81:29 5.04569e-05
48 *54:76 *88:8 1.0675e-05
49 *54:76 *88:12 0.000202897
50 *54:76 *102:27 0.000178579
51 *54:104 *329:A1 0.000177818
52 *54:104 *330:A_N 2.86445e-05
53 *54:104 *349:A1 9.37846e-05
54 *54:104 *115:38 8.52883e-05
55 *54:104 *134:16 0.000116109
56 *397:B *54:76 0.00013475
57 *401:A2 *54:76 2.47705e-05
58 *52:70 *54:76 0
*RES
1 *328:X *54:8 5.745 
2 *54:8 *54:12 6.935 
3 *54:12 *54:14 7.695 
4 *54:14 *377:A2 10.5688 
5 *54:14 *54:37 5.635 
6 *54:37 *54:43 5.03 
7 *54:43 *354:A2 3.6 
8 *54:43 *345:B1 8.28 
9 *54:37 *366:B1 1.6 
10 *54:12 *54:76 15.665 
11 *54:76 *404:B1 6.285 
12 *54:76 *391:A2 3.6 
13 *54:8 *54:104 8.27375 
14 *54:104 *329:A2 2.09875 
15 *54:104 *330:B 4.10125 
*END

*D_NET *55 0.00167764
*CONN
*I *331:B I *D sky130_fd_sc_hd__and3_1
*I *332:A1 I *D sky130_fd_sc_hd__a21o_1
*I *329:X O *D sky130_fd_sc_hd__a21bo_1
*CAP
1 *331:B 0.000300149
2 *332:A1 0
3 *329:X 0.000140425
4 *55:12 0.000440574
5 *331:B *331:C 1.04239e-05
6 *331:B *332:B1 1.09781e-06
7 *331:B *57:10 7.11608e-05
8 *331:B *58:6 0.00018612
9 *331:B *62:86 0.000182221
10 *331:B *63:42 5.99925e-05
11 *55:12 *332:B1 0.000134249
12 *55:12 *58:6 8.52883e-05
13 *55:12 *122:10 6.59356e-05
14 *55:12 *138:20 0
*RES
1 *329:X *55:12 8.54 
2 *55:12 *332:A1 1.6 
3 *55:12 *331:B 10.475 
*END

*D_NET *56 0.0010189
*CONN
*I *331:C I *D sky130_fd_sc_hd__and3_1
*I *332:A2 I *D sky130_fd_sc_hd__a21o_1
*I *330:Y O *D sky130_fd_sc_hd__nand3b_1
*CAP
1 *331:C 7.26997e-05
2 *332:A2 0.000122624
3 *330:Y 3.41122e-05
4 *56:6 0.000229436
5 *331:C *332:B1 0.00014613
6 *331:C *63:42 7.41798e-05
7 *331:C *138:20 7.41798e-05
8 *332:A2 *332:B1 7.40118e-05
9 *332:A2 *138:20 0.000138423
10 *330:B *331:C 3.12916e-05
11 *330:B *332:A2 1.1392e-05
12 *331:B *331:C 1.04239e-05
*RES
1 *330:Y *56:6 2.05 
2 *56:6 *332:A2 8.03 
3 *56:6 *331:C 8.195 
*END

*D_NET *57 0.000711678
*CONN
*I *333:A I *D sky130_fd_sc_hd__or2b_1
*I *344:B1 I *D sky130_fd_sc_hd__a21o_1
*I *331:X O *D sky130_fd_sc_hd__and3_1
*CAP
1 *333:A 0.000130244
2 *344:B1 6.39557e-05
3 *331:X 2.61136e-05
4 *57:10 0.000220314
5 *333:A *333:B_N 6.07575e-06
6 *333:A *344:A2 4.66826e-05
7 *333:A *58:6 8.73389e-06
8 *344:B1 *344:A2 1.85674e-05
9 *344:B1 *58:6 4.82919e-05
10 *57:10 *63:42 7.15381e-05
11 *331:B *57:10 7.11608e-05
*RES
1 *331:X *57:10 6.47 
2 *57:10 *344:B1 2.92 
3 *57:10 *333:A 3.085 
*END

*D_NET *58 0.000922324
*CONN
*I *333:B_N I *D sky130_fd_sc_hd__or2b_1
*I *344:A1 I *D sky130_fd_sc_hd__a21o_1
*I *332:X O *D sky130_fd_sc_hd__a21o_1
*CAP
1 *333:B_N 7.41743e-05
2 *344:A1 0
3 *332:X 0.000144876
4 *58:6 0.000219051
5 *333:B_N *344:A2 3.45252e-05
6 *58:6 *332:B1 4.66108e-05
7 *58:6 *69:10 6.85767e-05
8 *331:B *58:6 0.00018612
9 *333:A *333:B_N 6.07575e-06
10 *333:A *58:6 8.73389e-06
11 *344:B1 *58:6 4.82919e-05
12 *55:12 *58:6 8.52883e-05
*RES
1 *332:X *58:6 5.155 
2 *58:6 *344:A1 1.6 
3 *58:6 *333:B_N 2.755 
*END

*D_NET *59 0.000598198
*CONN
*I *335:A I *D sky130_fd_sc_hd__xnor2_1
*I *333:X O *D sky130_fd_sc_hd__or2b_1
*CAP
1 *335:A 0.000174487
2 *333:X 0.000174487
3 *335:A *335:B 0.00011459
4 *335:A *344:A2 1.83756e-05
5 *335:A *65:60 0.000116257
*RES
1 *333:X *335:A 10.065 
*END

*D_NET *60 0.000985837
*CONN
*I *335:B I *D sky130_fd_sc_hd__xnor2_1
*I *344:A2 I *D sky130_fd_sc_hd__a21o_1
*I *334:X O *D sky130_fd_sc_hd__or2b_1
*CAP
1 *335:B 5.6983e-05
2 *344:A2 6.6622e-05
3 *334:X 3.92915e-05
4 *60:8 0.000162897
5 *335:B *65:60 4.42532e-05
6 *335:B *125:48 0.000203636
7 *60:8 *65:60 6.20861e-05
8 *60:8 *125:48 0.000117327
9 *333:A *344:A2 4.66826e-05
10 *333:B_N *344:A2 3.45252e-05
11 *335:A *335:B 0.00011459
12 *335:A *344:A2 1.83756e-05
13 *344:B1 *344:A2 1.85674e-05
*RES
1 *334:X *60:8 4.98 
2 *60:8 *344:A2 5.1 
3 *60:8 *335:B 6 
*END

*D_NET *61 0.000997743
*CONN
*I *343:A2 I *D sky130_fd_sc_hd__a21o_1
*I *335:Y O *D sky130_fd_sc_hd__xnor2_1
*CAP
1 *343:A2 0.000330614
2 *335:Y 0.000330614
3 *343:A2 *343:B1 0.000175234
4 *343:A2 *116:6 3.86126e-05
5 *343:A1 *343:A2 3.6227e-05
6 *429:A *343:A2 8.64421e-05
*RES
1 *335:Y *343:A2 13.365 
*END

*D_NET *62 0.0168166
*CONN
*I *342:A3 I *D sky130_fd_sc_hd__a31o_1
*I *364:A3 I *D sky130_fd_sc_hd__a311o_1
*I *353:A3 I *D sky130_fd_sc_hd__a311o_1
*I *374:A3 I *D sky130_fd_sc_hd__a31o_1
*I *389:A3 I *D sky130_fd_sc_hd__a31o_1
*I *400:A3 I *D sky130_fd_sc_hd__a31o_1
*I *410:A3 I *D sky130_fd_sc_hd__a31o_1
*I *336:Y O *D sky130_fd_sc_hd__nor2_2
*CAP
1 *342:A3 0.000174232
2 *364:A3 0.000978397
3 *353:A3 0
4 *374:A3 0.000400346
5 *389:A3 0.000143974
6 *400:A3 0
7 *410:A3 0.000235759
8 *336:Y 5.33145e-05
9 *62:98 0.00147452
10 *62:86 0.000907511
11 *62:52 0.00106006
12 *62:43 0.00125024
13 *62:20 0.00158254
14 *62:6 0.000902755
15 *342:A3 *63:42 3.70624e-05
16 *342:A3 *65:60 2.85623e-05
17 *342:A3 *115:16 0.000116593
18 *342:A3 *125:48 2.45932e-05
19 *364:A3 *364:A2 5.18317e-06