*SPEF "ieee 1481-1999"
*DESIGN "alu"
*DATE "11:11:11 Fri 11 11, 1111"
*VENDOR "OpenRCX"
*PROGRAM "Parallel Extraction"
*VERSION "1.0"
*DESIGN_FLOW "NAME_SCOPE LOCAL" "PIN_CAP NONE"
*DIVIDER /
*DELIMITER :
*BUS_DELIMITER []
*T_UNIT 1 NS
*C_UNIT 1 PF
*R_UNIT 1 OHM
*L_UNIT 1 HENRY

*NAME_MAP
*3 a[0]
*4 a[1]
*5 a[2]
*6 a[3]
*7 a[4]
*8 a[5]
*9 a[6]
*10 a[7]
*11 b[0]
*12 b[1]
*13 b[2]
*14 b[3]
*15 b[4]
*16 b[5]
*17 b[6]
*18 b[7]
*19 op[0]
*20 op[1]
*21 op[2]
*22 result[0]
*23 result[1]
*24 result[2]
*25 result[3]
*26 result[4]
*27 result[5]
*28 result[6]
*29 result[7]
*30 _000_
*31 _001_
*32 _002_
*33 _003_
*34 _004_
*35 _005_
*36 _006_
*37 _007_
*38 _008_
*39 _009_
*40 _010_
*41 _011_
*42 _012_
*43 _013_
*44 _014_
*45 _015_
*46 _016_
*47 _017_
*48 _018_
*49 _019_
*50 _020_
*51 _021_
*52 _022_
*53 _023_
*54 _024_
*55 _025_
*56 _026_
*57 _027_
*58 _028_
*59 _029_
*60 _030_
*61 _031_
*62 _032_
*63 _033_
*64 _034_
*65 _035_
*66 _036_
*67 _037_
*68 _038_
*69 _039_
*70 _040_
*71 _041_
*72 _042_
*73 _043_
*74 _044_
*75 _045_
*76 _046_
*77 _047_
*78 _048_
*79 _049_
*80 _050_
*81 _051_
*82 _052_
*83 _053_
*84 _054_
*85 _055_
*86 _056_
*87 _057_
*88 _058_
*89 _059_
*90 _060_
*91 _061_
*92 _062_
*93 _063_
*94 _064_
*95 _065_
*96 _066_
*97 _067_
*98 _068_
*99 _069_
*100 _070_
*101 _071_
*102 _072_
*103 _073_
*104 _074_
*105 _075_
*106 _076_
*107 _077_
*108 _078_
*109 _079_
*110 _080_
*111 _081_
*112 _082_
*113 _083_
*114 net1
*115 net10
*116 net11
*117 net12
*118 net13
*119 net14
*120 net15
*121 net16
*122 net17
*123 net18
*124 net19
*125 net2
*126 net20
*127 net21
*128 net22
*129 net23
*130 net24
*131 net25
*132 net26
*133 net27
*134 net3
*135 net4
*136 net5
*137 net6
*138 net7
*139 net8
*140 net9
*141 FILLER_0_0_27
*142 FILLER_0_0_33
*143 FILLER_0_0_45
*144 FILLER_0_0_55
*145 FILLER_0_0_57
*146 FILLER_0_0_65
*147 FILLER_0_0_7
*148 FILLER_0_0_79
*149 FILLER_0_0_85
*150 FILLER_0_10_29
*151 FILLER_0_10_3
*152 FILLER_0_10_35
*153 FILLER_0_10_54
*154 FILLER_0_10_81
*155 FILLER_0_10_85
*156 FILLER_0_11_13
*157 FILLER_0_11_17
*158 FILLER_0_11_24
*159 FILLER_0_11_3
*160 FILLER_0_11_30
*161 FILLER_0_11_38
*162 FILLER_0_11_47
*163 FILLER_0_11_55
*164 FILLER_0_11_57
*165 FILLER_0_11_79
*166 FILLER_0_12_20
*167 FILLER_0_12_37
*168 FILLER_0_12_45
*169 FILLER_0_12_52
*170 FILLER_0_12_64
*171 FILLER_0_12_79
*172 FILLER_0_12_85
*173 FILLER_0_13_25
*174 FILLER_0_13_55
*175 FILLER_0_13_57
*176 FILLER_0_13_84
*177 FILLER_0_14_23
*178 FILLER_0_14_27
*179 FILLER_0_14_29
*180 FILLER_0_14_37
*181 FILLER_0_14_44
*182 FILLER_0_14_57
*183 FILLER_0_14_65
*184 FILLER_0_14_7
*185 FILLER_0_14_77
*186 FILLER_0_14_85
*187 FILLER_0_1_29
*188 FILLER_0_1_3
*189 FILLER_0_1_53
*190 FILLER_0_1_57
*191 FILLER_0_1_77
*192 FILLER_0_2_14
*193 FILLER_0_2_27
*194 FILLER_0_2_29
*195 FILLER_0_2_39
*196 FILLER_0_2_50
*197 FILLER_0_2_62
*198 FILLER_0_2_75
*199 FILLER_0_2_79
*200 FILLER_0_2_83
*201 FILLER_0_2_85
*202 FILLER_0_3_12
*203 FILLER_0_3_18
*204 FILLER_0_3_3
*205 FILLER_0_3_33
*206 FILLER_0_3_45
*207 FILLER_0_3_53
*208 FILLER_0_3_57
*209 FILLER_0_3_63
*210 FILLER_0_3_68
*211 FILLER_0_3_80
*212 FILLER_0_3_86
*213 FILLER_0_4_18
*214 FILLER_0_4_26
*215 FILLER_0_4_35
*216 FILLER_0_4_39
*217 FILLER_0_4_53
*218 FILLER_0_4_57
*219 FILLER_0_4_64
*220 FILLER_0_4_7
*221 FILLER_0_4_71
*222 FILLER_0_4_79
*223 FILLER_0_4_83
*224 FILLER_0_4_85
*225 FILLER_0_5_14
*226 FILLER_0_5_22
*227 FILLER_0_5_34
*228 FILLER_0_5_51
*229 FILLER_0_5_55
*230 FILLER_0_5_57
*231 FILLER_0_5_76
*232 FILLER_0_6_20
*233 FILLER_0_6_29
*234 FILLER_0_6_3
*235 FILLER_0_6_37
*236 FILLER_0_6_44
*237 FILLER_0_6_56
*238 FILLER_0_6_64
*239 FILLER_0_6_78
*240 FILLER_0_6_85
*241 FILLER_0_7_17
*242 FILLER_0_7_3
*243 FILLER_0_7_44
*244 FILLER_0_7_72
*245 FILLER_0_7_86
*246 FILLER_0_8_11
*247 FILLER_0_8_23
*248 FILLER_0_8_27
*249 FILLER_0_8_3
*250 FILLER_0_8_39
*251 FILLER_0_8_51
*252 FILLER_0_8_63
*253 FILLER_0_8_80
*254 FILLER_0_8_85
*255 FILLER_0_9_13
*256 FILLER_0_9_23
*257 FILLER_0_9_35
*258 FILLER_0_9_43
*259 FILLER_0_9_49
*260 FILLER_0_9_55
*261 FILLER_0_9_57
*262 FILLER_0_9_69
*263 FILLER_0_9_77
*264 FILLER_0_9_85
*265 FILLER_0_9_9
*266 PHY_0
*267 PHY_1
*268 PHY_10
*269 PHY_11
*270 PHY_12
*271 PHY_13
*272 PHY_14
*273 PHY_15
*274 PHY_16
*275 PHY_17
*276 PHY_18
*277 PHY_19
*278 PHY_2
*279 PHY_20
*280 PHY_21
*281 PHY_22
*282 PHY_23
*283 PHY_24
*284 PHY_25
*285 PHY_26
*286 PHY_27
*287 PHY_28
*288 PHY_29
*289 PHY_3
*290 PHY_4
*291 PHY_5
*292 PHY_6
*293 PHY_7
*294 PHY_8
*295 PHY_9
*296 TAP_30
*297 TAP_31
*298 TAP_32
*299 TAP_33
*300 TAP_34
*301 TAP_35
*302 TAP_36
*303 TAP_37
*304 TAP_38
*305 TAP_39
*306 TAP_40
*307 TAP_41
*308 TAP_42
*309 TAP_43
*310 TAP_44
*311 TAP_45
*312 TAP_46
*313 TAP_47
*314 TAP_48
*315 TAP_49
*316 TAP_50
*317 TAP_51
*318 TAP_52
*319 TAP_53
*320 TAP_54
*321 _084_
*322 _085_
*323 _086_
*324 _087_
*325 _088_
*326 _089_
*327 _090_
*328 _091_
*329 _092_
*330 _093_
*331 _094_
*332 _095_
*333 _096_
*334 _097_
*335 _098_
*336 _099_
*337 _100_
*338 _101_
*339 _102_
*340 _103_
*341 _104_
*342 _105_
*343 _106_
*344 _107_
*345 _108_
*346 _109_
*347 _110_
*348 _111_
*349 _112_
*350 _113_
*351 _114_
*352 _115_
*353 _116_
*354 _117_
*355 _118_
*356 _119_
*357 _120_
*358 _121_
*359 _122_
*360 _123_
*361 _124_
*362 _125_
*363 _126_
*364 _127_
*365 _128_
*366 _129_
*367 _130_
*368 _131_
*369 _132_
*370 _133_
*371 _134_
*372 _135_
*373 _136_
*374 _137_
*375 _138_
*376 _139_
*377 _140_
*378 _141_
*379 _142_
*380 _143_
*381 _144_
*382 _145_
*383 _146_
*384 _147_
*385 _148_
*386 _149_
*387 _150_
*388 _151_
*389 _152_
*390 _153_
*391 _154_
*392 _155_
*393 _156_
*394 _157_
*395 _158_
*396 _159_
*397 _160_
*398 _161_
*399 _162_
*400 _163_
*401 _164_
*402 _165_
*403 _166_
*404 _167_
*405 _168_
*406 _169_
*407 _170_
*408 _171_
*409 _172_
*410 _173_
*411 _174_
*412 _175_
*413 input1
*414 input10
*415 input11
*416 input12
*417 input13
*418 input14
*419 input15
*420 input16
*421 input17
*422 input18
*423 input19
*424 input2
*425 input3
*426 input4
*427 input5
*428 input6
*429 input7
*430 input8
*431 input9
*432 output20
*433 output21
*434 output22
*435 output23
*436 output24
*437 output25
*438 output26
*439 output27

*PORTS
a[0] I
a[1] I
a[2] I
a[3] I
a[4] I
a[5] I
a[6] I
a[7] I
b[0] I
b[1] I
b[2] I
b[3] I
b[4] I
b[5] I
b[6] I
b[7] I
op[0] I
op[1] I
op[2] I
result[0] O
result[1] O
result[2] O
result[3] O
result[4] O
result[5] O
result[6] O
result[7] O

*D_NET *3 0.00250239
*CONN
*P a[0] I
*I *413:A I *D sky130_fd_sc_hd__buf_1
*CAP
1 a[0] 0.00111066
2 *413:A 0
3 *3:15 0.00111066
4 *3:15 *10:15 0
5 *3:15 *65:24 0.000248445
6 *3:15 *65:34 2.68708e-05
7 *3:15 *123:10 5.75756e-06
*RES
1 a[0] *3:15 37.4106 
2 *3:15 *413:A 23 
*END

*D_NET *4 0.000687475
*CONN
*P a[1] I
*I *424:A I *D sky130_fd_sc_hd__dlymetal6s2s_1
*CAP
1 a[1] 0.000343737
2 *424:A 0.000343737
3 *424:A result[7] 0
*RES
1 a[1] *424:A 48.4875 
*END

*D_NET *5 0.00140299
*CONN
*P a[2] I
*I *425:A I *D sky130_fd_sc_hd__clkbuf_2
*CAP
1 a[2] 0.000629059
2 *425:A 0
3 *5:23 0.000629059
4 *5:23 result[4] 0
5 *5:23 *65:40 8.62783e-05
6 *5:23 *121:10 2.63049e-05
7 *5:23 *130:16 3.22879e-05
*RES
1 a[2] *5:23 29.7279 
2 *5:23 *425:A 23 
*END

*D_NET *6 0.00054076
*CONN
*P a[3] I
*I *426:A I *D sky130_fd_sc_hd__dlymetal6s2s_1
*CAP
1 a[3] 0.00027038
2 *426:A 0.00027038
3 *426:A *8:15 0
*RES
1 a[3] *426:A 49.1767 
*END

*D_NET *7 0.000639411
*CONN
*P a[4] I
*I *427:A I *D sky130_fd_sc_hd__clkbuf_2
*CAP
1 a[4] 0.000319705
2 *427:A 0.000319705
3 *427:A *14:13 0
*RES
1 a[4] *427:A 49.6532 
*END

*D_NET *8 0.00102286
*CONN
*P a[5] I
*I *428:A I *D sky130_fd_sc_hd__dlymetal6s2s_1
*CAP
1 a[5] 0.00048615
2 *428:A 0
3 *8:15 0.00048615
4 *8:15 *417:A 5.05592e-05
5 *426:A *8:15 0
*RES
1 a[5] *8:15 27.3926 
2 *8:15 *428:A 23 
*END

*D_NET *9 0.00261688
*CONN
*P a[6] I
*I *429:A I *D sky130_fd_sc_hd__clkbuf_2
*CAP
1 a[6] 0.00113857
2 *429:A 0
3 *9:11 0.00113857
4 *9:11 *343:A2 0.000102389
5 *9:11 *343:B1 5.3304e-05
6 *9:11 *12:9 0.000147656
7 *9:11 *13:13 0
8 *9:11 *23:10 3.63985e-05
*RES
1 a[6] *9:11 36.5843 
2 *9:11 *429:A 23 
*END

*D_NET *10 0.00173007
*CONN
*P a[7] I
*I *430:A I *D sky130_fd_sc_hd__buf_1
*CAP
1 a[7] 0.000795102
2 *430:A 0
3 *10:15 0.000795102
4 *10:15 *114:12 0.000139865
5 *3:15 *10:15 0
*RES
1 a[7] *10:15 32.7521 
2 *10:15 *430:A 23 
*END

*D_NET *11 0.002106
*CONN
*P b[0] I
*I *431:A I *D sky130_fd_sc_hd__buf_2
*CAP
1 b[0] 0.000535667
2 *431:A 0
3 *11:13 0.000535667
4 *11:13 *17:9 0.000139352
5 *11:13 *18:11 0.000895315
*RES
1 b[0] *11:13 34.6993 
2 *11:13 *431:A 23 
*END

*D_NET *12 0.00121806
*CONN
*P b[1] I
*I *414:A I *D sky130_fd_sc_hd__clkbuf_2
*CAP
1 b[1] 0.000535201
2 *414:A 0
3 *12:9 0.000535201
4 *9:11 *12:9 0.000147656
*RES
1 b[1] *12:9 27.035 
2 *12:9 *414:A 23 
*END

*D_NET *13 0.00227004
*CONN
*P b[2] I
*I *415:A I *D sky130_fd_sc_hd__buf_2
*CAP
1 b[2] 0.001018
2 *415:A 0
3 *13:13 0.001018
4 *13:13 result[1] 0
5 *13:13 *23:10 0.000234031
6 *9:11 *13:13 0
*RES
1 b[2] *13:13 40.5585 
2 *13:13 *415:A 23 
*END

*D_NET *14 0.000723375
*CONN
*P b[3] I
*I *416:A I *D sky130_fd_sc_hd__clkbuf_2
*CAP
1 b[3] 0.000361688
2 *416:A 0
3 *14:13 0.000361688
4 *14:13 *65:117 0
5 *427:A *14:13 0
*RES
1 b[3] *14:13 27.7096 
2 *14:13 *416:A 23 
*END

*D_NET *15 0.00119406
*CONN
*P b[4] I
*I *417:A I *D sky130_fd_sc_hd__clkbuf_2
*CAP
1 b[4] 0.000571752
2 *417:A 0.000571752
3 *8:15 *417:A 5.05592e-05
*RES
1 b[4] *417:A 49.5586 
*END

*D_NET *16 0.00173453
*CONN
*P b[5] I
*I *418:A I *D sky130_fd_sc_hd__clkbuf_2
*CAP
1 b[5] 0.000867267
2 *418:A 0
3 *16:9 0.000867267
4 *16:9 *20:13 0
*RES
1 b[5] *16:9 32.0686 
2 *16:9 *418:A 23 
*END

*D_NET *17 0.00167883
*CONN
*P b[6] I
*I *419:A I *D sky130_fd_sc_hd__clkbuf_2
*CAP
1 b[6] 0.000769738
2 *419:A 0
3 *17:9 0.000769738
4 *11:13 *17:9 0.000139352
*RES
1 b[6] *17:9 31.1157 
2 *17:9 *419:A 23 
*END

*D_NET *18 0.00253456
*CONN
*P b[7] I
*I *420:A I *D sky130_fd_sc_hd__dlymetal6s2s_1
*CAP
1 b[7] 0.000570233
2 *420:A 0
3 *18:11 0.000570233
4 *18:11 *120:10 0.000498782
5 *11:13 *18:11 0.000895315
*RES
1 b[7] *18:11 31.8407 
2 *18:11 *420:A 23 
*END

*D_NET *19 0.00145493
*CONN
*P op[0] I
*I *421:A I *D sky130_fd_sc_hd__clkbuf_2
*CAP
1 op[0] 0.000489048
2 *421:A 0
3 *19:9 0.000489048
4 *19:9 *28:10 0.000418875
5 *19:9 *132:16 5.79559e-05
*RES
1 op[0] *19:9 27.5114 
2 *19:9 *421:A 23 
*END

*D_NET *20 0.000628269
*CONN
*P op[1] I
*I *422:A I *D sky130_fd_sc_hd__clkbuf_2
*CAP
1 op[1] 0.000314134
2 *422:A 0
3 *20:13 0.000314134
4 *16:9 *20:13 0
*RES
1 op[1] *20:13 27.319 
2 *20:13 *422:A 23 
*END

*D_NET *21 0.00127603
*CONN
*P op[2] I
*I *423:A I *D sky130_fd_sc_hd__clkbuf_2
*CAP
1 op[2] 0.000549062
2 *423:A 0.000549062
3 *423:A *121:10 0.000177909
*RES
1 op[2] *423:A 49.8279 
*END

*D_NET *22 0.000672478
*CONN
*P result[0] O
*I *432:X O *D sky130_fd_sc_hd__clkbuf_4
*CAP
1 result[0] 0.000336239
2 *432:X 0.000336239
3 result[0] *126:10 0
*RES
1 *432:X result[0] 48.0525 
*END

*D_NET *23 0.00155156
*CONN
*P result[1] O
*I *433:X O *D sky130_fd_sc_hd__clkbuf_4
*CAP
1 result[1] 0.000142313
2 *433:X 0.000465504
3 *23:10 0.000607817
4 *23:10 *433:A 5.3304e-05
5 *23:10 *68:10 1.21972e-05
6 *9:11 *23:10 3.63985e-05
7 *13:13 result[1] 0
8 *13:13 *23:10 0.000234031
*RES
1 *433:X *23:10 45.5711 
2 *23:10 result[1] 8.4144 
*END

*D_NET *24 0.00104177
*CONN
*P result[2] O
*I *434:X O *D sky130_fd_sc_hd__clkbuf_4
*CAP
1 result[2] 0.000510513
2 *434:X 0.000510513
3 result[2] *129:18 2.07484e-05
*RES
1 *434:X result[2] 48.6471 
*END

*D_NET *25 0.00100393
*CONN
*P result[3] O
*I *435:X O *D sky130_fd_sc_hd__clkbuf_4
*CAP
1 result[3] 0.000501966
2 *435:X 0.000501966
*RES
1 *435:X result[3] 48.9786 
*END

*D_NET *26 0.00122663
*CONN
*P result[4] O
*I *436:X O *D sky130_fd_sc_hd__clkbuf_4
*CAP
1 result[4] 0.000564182
2 *436:X 0.000564182
3 result[4] *121:10 6.89183e-05
4 result[4] *130:16 2.93431e-05
5 *5:23 result[4] 0
*RES
1 *436:X result[4] 48.8129 
*END

*D_NET *27 0.000838392
*CONN
*P result[5] O
*I *437:X O *D sky130_fd_sc_hd__clkbuf_4
*CAP
1 result[5] 0.000292295
2 *437:X 0.000292295
3 result[5] *65:111 0.000126901
4 result[5] *137:20 0.000126901
*RES
1 *437:X result[5] 48.5734 
*END

*D_NET *28 0.00263946
*CONN
*P result[6] O
*I *438:X O *D sky130_fd_sc_hd__clkbuf_4
*CAP
1 result[6] 0.000700602
2 *438:X 0.000402939
3 *28:10 0.00110354
4 *28:10 *132:16 1.34995e-05
5 *19:9 *28:10 0.000418875
*RES
1 *438:X *28:10 48.6989 
2 *28:10 result[6] 10.5387 
*END

*D_NET *29 0.00113081
*CONN
*P result[7] O
*I *439:X O *D sky130_fd_sc_hd__buf_2
*CAP
1 result[7] 0.000503182
2 *439:X 0.000503182
3 result[7] *114:12 0.000124447
4 *424:A result[7] 0
*RES
1 *439:X result[7] 48.831 
*END

*D_NET *30 0.00123571
*CONN
*I *403:B1 I *D sky130_fd_sc_hd__o211a_1
*I *397:A I *D sky130_fd_sc_hd__xnor2_1
*I *393:Y O *D sky130_fd_sc_hd__xnor2_1
*CAP
1 *403:B1 1.42002e-05
2 *397:A 9.64919e-05
3 *393:Y 4.7616e-05
4 *30:14 0.00020122
5 *30:8 0.000138144
6 *397:A *403:A1 4.51972e-05
7 *397:A *403:C1 0.000229875
8 *397:A *52:34 0.000275472
9 *403:B1 *403:A1 5.55743e-06
10 *30:8 *32:14 8.78864e-05
11 *30:8 *52:26 4.11274e-05
12 *30:14 *403:A1 5.29205e-05
*RES
1 *393:Y *30:8 39.2014 
2 *30:8 *30:14 16.9471 
3 *30:14 *397:A 26.9771 
4 *30:14 *403:B1 23.4971 
*END

*D_NET *31 0.00112093
*CONN
*I *396:A1 I *D sky130_fd_sc_hd__o21ai_1
*I *403:A1 I *D sky130_fd_sc_hd__o211a_1
*I *394:X O *D sky130_fd_sc_hd__o211a_1
*CAP
1 *396:A1 0
2 *403:A1 0.000257442
3 *394:X 9.19239e-05
4 *31:8 0.000349366
5 *403:A1 *403:C1 1.3523e-05
6 *403:A1 *52:70 0.000138719
7 *31:8 *52:70 0.000166281
8 *397:A *403:A1 4.51972e-05
9 *403:B1 *403:A1 5.55743e-06
10 *30:14 *403:A1 5.29205e-05
*RES
1 *394:X *31:8 40.2579 
2 *31:8 *403:A1 42.9507 
3 *31:8 *396:A1 38 
*END

*D_NET *32 0.00258561
*CONN
*I *396:A2 I *D sky130_fd_sc_hd__o21ai_1
*I *403:A2 I *D sky130_fd_sc_hd__o211a_1
*I *395:Y O *D sky130_fd_sc_hd__nand2_1
*CAP
1 *396:A2 0.000336912
2 *403:A2 0
3 *395:Y 0.000576782
4 *32:14 0.000913694
5 *396:A2 *52:26 3.50862e-06
6 *396:A2 *52:70 0.00012426
7 *396:A2 *130:10 3.94652e-05
8 *32:14 *395:A 1.3523e-05
9 *32:14 *401:A2 5.82367e-05
10 *32:14 *401:B1 3.51304e-05
11 *32:14 *52:26 0.000126713
12 *32:14 *52:30 0.000105607
13 *32:14 *52:70 2.81425e-05
14 *32:14 *132:8 8.78697e-05
15 *32:14 *138:28 4.78793e-05
16 *30:8 *32:14 8.78864e-05
*RES
1 *395:Y *32:14 48.1707 
2 *32:14 *403:A2 38 
3 *32:14 *396:A2 43.7171 
*END

*D_NET *33 0.000837859
*CONN
*I *397:B I *D sky130_fd_sc_hd__xnor2_1
*I *396:Y O *D sky130_fd_sc_hd__o21ai_1
*CAP
1 *397:B 0
2 *396:Y 0.000176735
3 *33:10 0.000176735
4 *33:10 *396:B1 0.000139882
5 *33:10 *54:76 0.000165384
6 *33:10 *102:27 3.90213e-05
7 *33:10 *130:10 0.000140101
*RES
1 *396:Y *33:10 41.8321 
2 *33:10 *397:B 38 
*END

*D_NET *34 0.000602595
*CONN
*I *401:A2 I *D sky130_fd_sc_hd__a21o_1
*I *397:Y O *D sky130_fd_sc_hd__xnor2_1
*CAP
1 *401:A2 0.000158302
2 *397:Y 6.36751e-05
3 *34:8 0.000221977
4 *401:A2 *393:B 0
5 *401:A2 *401:B1 5.56279e-05
6 *34:8 *52:30 2.23884e-05
7 *34:8 *54:76 2.23884e-05
8 *32:14 *401:A2 5.82367e-05
*RES
1 *397:Y *34:8 39.2014 
2 *34:8 *401:A2 41.3971 
*END

*D_NET *35 0.000566846
*CONN
*I *399:B2 I *D sky130_fd_sc_hd__o22a_1
*I *398:Y O *D sky130_fd_sc_hd__a21oi_1
*CAP
1 *399:B2 0
2 *398:Y 0.000111801
3 *35:10 0.000111801
4 *35:10 *398:A1 0.000164717
5 *35:10 *113:14 8.87351e-05
6 *35:10 *124:8 5.67058e-05
7 *35:10 *130:16 3.3085e-05
*RES
1 *398:Y *35:10 40.8793 
2 *35:10 *399:B2 38 
*END

*D_NET *36 0.000813131
*CONN
*I *400:B1 I *D sky130_fd_sc_hd__a31o_1
*I *399:X O *D sky130_fd_sc_hd__o22a_1
*CAP
1 *400:B1 0
2 *399:X 0.000213763
3 *36:10 0.000213763
4 *36:10 *40:8 0.00018221
5 *36:10 *113:14 6.35124e-05
6 *36:10 *138:34 0.000139882
*RES
1 *399:X *36:10 41.9564 
2 *36:10 *400:B1 38 
*END

*D_NET *37 0.00075779
*CONN
*I *401:B1 I *D sky130_fd_sc_hd__a21o_1
*I *400:X O *D sky130_fd_sc_hd__a31o_1
*CAP
1 *401:B1 1.8198e-05
2 *400:X 0.000286008
3 *37:8 0.000304206
4 *37:8 *52:30 5.86204e-05
5 *401:A2 *401:B1 5.56279e-05
6 *32:14 *401:B1 3.51304e-05
*RES
1 *400:X *37:8 42.7229 
2 *37:8 *401:B1 38.6214 
*END

*D_NET *38 0.00113255
*CONN
*I *408:A I *D sky130_fd_sc_hd__or3_1
*I *407:A1 I *D sky130_fd_sc_hd__o21ai_1
*I *402:X O *D sky130_fd_sc_hd__and2b_1
*CAP
1 *408:A 0
2 *407:A1 0
3 *402:X 8.18731e-05
4 *38:16 0.000217572
5 *38:6 0.000299445
6 *38:6 *124:22 0.000187968
7 *38:16 *408:C 8.85189e-05
8 *38:16 *39:16 5.79559e-05
9 *38:16 *43:12 2.95423e-05
10 *38:16 *62:16 0.000169674
*RES
1 *402:X *38:6 25.0507 
2 *38:6 *38:16 34.6814 
3 *38:16 *407:A1 23 
4 *38:6 *408:A 23 
*END

*D_NET *39 0.00301639
*CONN
*I *408:B I *D sky130_fd_sc_hd__or3_1
*I *407:A2 I *D sky130_fd_sc_hd__o21ai_1
*I *403:X O *D sky130_fd_sc_hd__o211a_1
*CAP
1 *408:B 0
2 *407:A2 0
3 *403:X 0.000352864
4 *39:29 0.000296338
5 *39:16 0.000378195
6 *39:6 0.0010274
7 *39:6 *52:26 0.000130805
8 *39:16 *62:16 0
9 *39:16 *63:16 0.000343683
10 *39:16 *124:22 0.000199701
11 *39:29 *52:26 0.000107658
12 *39:29 *62:16 3.88629e-05
13 *39:29 *138:20 8.29264e-05
14 *38:16 *39:16 5.79559e-05
*RES
1 *403:X *39:6 27.4329 
2 *39:6 *39:16 38.2236 
3 *39:16 *407:A2 23 
4 *39:6 *39:29 34.6814 
5 *39:29 *408:B 23 
*END

*D_NET *40 0.00156742
*CONN
*I *406:A I *D sky130_fd_sc_hd__xnor2_1
*I *404:X O *D sky130_fd_sc_hd__o31a_1
*CAP
1 *406:A 0
2 *404:X 0.000417256
3 *40:8 0.000417256
4 *40:8 *399:A1 5.3304e-05
5 *40:8 *399:B1 0.000357455
6 *40:8 *411:B1 6.02456e-05
7 *40:8 *119:24 7.9698e-05
8 *36:10 *40:8 0.00018221
*RES
1 *404:X *40:8 31.7414 
2 *40:8 *406:A 23 
*END

*D_NET *41 0.00103426
*CONN
*I *406:B I *D sky130_fd_sc_hd__xnor2_1
*I *405:X O *D sky130_fd_sc_hd__xor2_1
*CAP
1 *406:B 0.000127556
2 *405:X 7.64444e-05
3 *41:8 0.000204001
4 *406:B *411:A1 5.58003e-05
5 *406:B *411:B1 0.0002438
6 *41:8 *405:B 0.000164392
7 *41:8 *42:10 0.000162263
*RES
1 *405:X *41:8 40.2579 
2 *41:8 *406:B 41.7286 
*END

*D_NET *42 0.00141952
*CONN
*I *408:C I *D sky130_fd_sc_hd__or3_1
*I *407:B1 I *D sky130_fd_sc_hd__o21ai_1
*I *406:Y O *D sky130_fd_sc_hd__xnor2_1
*CAP
1 *408:C 0.000188261
2 *407:B1 0
3 *406:Y 0.000232153
4 *42:10 0.000420414
5 *408:C *62:16 6.59357e-05
6 *42:10 *411:A1 2.95526e-05
7 *42:10 *47:10 3.34324e-05
8 *42:10 *62:16 6.33771e-05
9 *42:10 *139:14 0.000135616
10 *38:16 *408:C 8.85189e-05
11 *41:8 *42:10 0.000162263
*RES
1 *406:Y *42:10 43.3443 
2 *42:10 *407:B1 38 
3 *42:10 *408:C 41.8736 
*END

*D_NET *43 0.00156724
*CONN
*I *412:A2 I *D sky130_fd_sc_hd__a31o_1
*I *407:Y O *D sky130_fd_sc_hd__o21ai_1
*CAP
1 *412:A2 0
2 *407:Y 0.000313977
3 *43:12 0.000313977
4 *43:12 *44:10 0.000141038
5 *43:12 *47:10 0.000138982
6 *43:12 *62:16 0.000183547
7 *43:12 *65:24 0.000280529
8 *43:12 *124:26 0.000165645
9 *38:16 *43:12 2.95423e-05
*RES
1 *407:Y *43:12 47.28 
2 *43:12 *412:A2 38 
*END

*D_NET *44 0.000783798
*CONN
*I *412:A3 I *D sky130_fd_sc_hd__a31o_1
*I *408:X O *D sky130_fd_sc_hd__or3_1
*CAP
1 *412:A3 0
2 *408:X 0.000177124
3 *44:10 0.000177124
4 *44:10 *326:A 9.41704e-05
5 *44:10 *65:24 0.000141038
6 *44:10 *124:22 5.3304e-05
7 *43:12 *44:10 0.000141038
*RES
1 *408:X *44:10 41.48 
2 *44:10 *412:A3 38 
*END

*D_NET *45 0.000271598
*CONN
*I *410:B1 I *D sky130_fd_sc_hd__a31o_1
*I *409:Y O *D sky130_fd_sc_hd__a21oi_1
*CAP
1 *410:B1 6.10308e-05
2 *409:Y 6.10308e-05
3 *410:B1 *409:A1 9.98739e-05
4 *410:B1 *119:14 4.9662e-05
*RES
1 *409:Y *410:B1 47.595 
*END

*D_NET *46 0.000656442
*CONN
*I *411:B2 I *D sky130_fd_sc_hd__o22a_1
*I *410:X O *D sky130_fd_sc_hd__a31o_1
*CAP
1 *411:B2 0
2 *410:X 0.000140493
3 *46:10 0.000140493
4 *46:10 *405:B 0.000104121
5 *46:10 *410:A3 0.00014513
6 *46:10 *119:14 9.84851e-05
7 *46:10 *121:14 2.772e-05
*RES
1 *410:X *46:10 41.3557 
2 *46:10 *411:B2 38 
*END

*D_NET *47 0.00182663
*CONN
*I *412:B1 I *D sky130_fd_sc_hd__a31o_1
*I *411:X O *D sky130_fd_sc_hd__o22a_1
*CAP
1 *412:B1 0
2 *411:X 0.000465666
3 *47:10 0.000465666
4 *47:10 *405:B 0.000162254
5 *47:10 *410:A3 3.88725e-05
6 *47:10 *411:B1 1.05235e-05
7 *47:10 *62:16 0.000242523
8 *47:10 *62:20 9.31877e-05
9 *47:10 *65:24 9.8788e-06
10 *47:10 *124:26 0.000165645
11 *42:10 *47:10 3.34324e-05
12 *43:12 *47:10 0.000138982
*RES
1 *411:X *47:10 49.9314 
2 *47:10 *412:B1 38 
*END

*D_NET *48 0.000939151
*CONN
*I *324:A1 I *D sky130_fd_sc_hd__o21ai_1
*I *321:Y O *D sky130_fd_sc_hd__a21oi_1
*CAP
1 *324:A1 0.0002635
2 *321:Y 6.56698e-05
3 *48:10 0.00032917
4 *324:A1 *323:A1 4.51677e-05
5 *324:A1 *323:B1 7.51453e-06
6 *324:A1 *323:B2 2.04109e-05
7 *324:A1 *324:A2 3.42686e-05
8 *324:A1 *324:B1 2.64616e-05
9 *324:A1 *140:62 1.46586e-05
10 *48:10 *125:14 8.71559e-05
11 *48:10 *140:54 7.49745e-06
12 *48:10 *140:62 3.76761e-05
*RES
1 *321:Y *48:10 39.3775 
2 *48:10 *324:A1 42.9507 
*END

*D_NET *49 0.00221317
*CONN
*I *336:B I *D sky130_fd_sc_hd__nor2_2
*I *324:A2 I *D sky130_fd_sc_hd__o21ai_1
*I *322:X O *D sky130_fd_sc_hd__or2b_1
*CAP
1 *336:B 0.00013049
2 *324:A2 0.000393848
3 *322:X 0.000201601
4 *49:10 0.000725939
5 *324:A2 *323:A1 5.44602e-05
6 *324:A2 *323:B1 7.3948e-05
7 *324:A2 *324:B1 2.64616e-05
8 *324:A2 *124:48 1.24957e-05
9 *336:B *65:24 0.000176541
10 *336:B *65:60 6.16531e-05
11 *336:B *125:14 0.000117868
12 *49:10 *439:A 3.18322e-05
13 *49:10 *65:24 0.000113508
14 *49:10 *123:25 8.06804e-06
15 *49:10 *125:14 5.01919e-05
16 *324:A1 *324:A2 3.42686e-05
*RES
1 *322:X *49:10 41.1279 
2 *49:10 *324:A2 43.4064 
3 *49:10 *336:B 41.3143 
*END

*D_NET *50 0.000201402
*CONN
*I *324:B1 I *D sky130_fd_sc_hd__o21ai_1
*I *323:X O *D sky130_fd_sc_hd__a221o_1
*CAP
1 *324:B1 5.62529e-05
2 *323:X 5.62529e-05
3 *324:B1 *323:A1 3.59733e-05
4 *324:A1 *324:B1 2.64616e-05
5 *324:A2 *324:B1 2.64616e-05
*RES
1 *323:X *324:B1 47.1186 
*END

*D_NET *51 0.000701877
*CONN
*I *325:B1 I *D sky130_fd_sc_hd__o21a_1
*I *324:Y O *D sky130_fd_sc_hd__o21ai_1
*CAP
1 *325:B1 0
2 *324:Y 0.000211521
3 *51:8 0.000211521
4 *51:8 *334:A 3.64337e-05
5 *51:8 *114:29 3.76761e-05
6 *51:8 *114:44 0.000204725
*RES
1 *324:Y *51:8 43.075 
2 *51:8 *325:B1 38 
*END

*D_NET *52 0.0160796
*CONN
*I *412:A1 I *D sky130_fd_sc_hd__a31o_1
*I *401:A1 I *D sky130_fd_sc_hd__a21o_1
*I *343:A1 I *D sky130_fd_sc_hd__a21o_1
*I *360:B1 I *D sky130_fd_sc_hd__o21ai_1
*I *349:B1 I *D sky130_fd_sc_hd__o21ai_1
*I *375:A1 I *D sky130_fd_sc_hd__a31o_1
*I *386:B1 I *D sky130_fd_sc_hd__o21a_1
*I *326:Y O *D sky130_fd_sc_hd__nor2_2
*CAP
1 *412:A1 0
2 *401:A1 0
3 *343:A1 0
4 *360:B1 3.09768e-05
5 *349:B1 3.15206e-05
6 *375:A1 0
7 *386:B1 0
8 *326:Y 0.000142752
9 *52:114 0.00125291
10 *52:95 0.00138097
11 *52:89 0.00102956
12 *52:70 0.00149587
13 *52:59 0.000153039
14 *52:48 0.000422755
15 *52:34 0.000915711
16 *52:30 0.00102551
17 *52:26 0.00108003
18 *52:16 0.00109338
19 *52:10 0.000309827
20 *349:B1 *140:25 6.13495e-05
21 *360:B1 *63:81 0.000100061
22 *360:B1 *84:14 7.51453e-06
23 *360:B1 *128:10 1.46205e-05
24 *52:10 *65:24 0.000168694
25 *52:10 *123:25 0.000168694
26 *52:26 *393:B 1.24376e-05
27 *52:26 *113:14 1.01436e-05
28 *52:26 *130:16 0.00014019
29 *52:26 *138:28 0.000126242
30 *52:34 *403:C1 2.83509e-05
31 *52:48 *385:A 5.92063e-05
32 *52:48 *385:B 5.16744e-05
33 *52:48 *99:10 0.000182462
34 *52:48 *102:16 0
35 *52:48 *140:10 0.000373136
36 *52:59 *384:B 0.00011937
37 *52:59 *92:8 5.75756e-06
38 *52:70 *54:76 0
39 *52:70 *73:16 0.000193359
40 *52:70 *134:16 0
41 *52:89 *62:98 0.000261458
42 *52:89 *65:95 2.46906e-05
43 *52:89 *72:14 0.000162254
44 *52:89 *73:16 2.56091e-05
45 *52:89 *74:10 1.70417e-05
46 *52:89 *75:10 3.21898e-05
47 *52:89 *76:8 2.35118e-06
48 *52:89 *115:30 0
49 *52:89 *115:38 0
50 *52:89 *116:49 0.000348847
51 *52:89 *140:25 0.000116243
52 *52:95 *62:98 0.000131538
53 *52:95 *80:14 4.38964e-05
54 *52:114 *340:A1 0.000146822
55 *52:114 *352:A1 0.000455084
56 *52:114 *360:A1 0
57 *52:114 *61:14 3.76854e-05
58 *52:114 *63:81 2.19845e-05
59 *52:114 *68:10 3.66555e-05
60 *52:114 *84:14 0
61 *52:114 *115:22 9.03964e-06
62 *52:114 *115:30 6.34915e-05
63 *52:114 *116:28 4.13343e-05
64 *52:114 *125:48 7.011e-05
65 *52:114 *125:57 0.000411533
66 *52:114 *128:10 0.000102389
67 *396:A2 *52:26 3.50862e-06
68 *396:A2 *52:70 0.00012426
69 *397:A *52:34 0.000275472
70 *403:A1 *52:70 0.000138719
71 *30:8 *52:26 4.11274e-05
72 *31:8 *52:70 0.000166281
73 *32:14 *52:26 0.000126713
74 *32:14 *52:30 0.000105607
75 *32:14 *52:70 2.81425e-05
76 *34:8 *52:30 2.23884e-05
77 *37:8 *52:30 5.86204e-05
78 *39:6 *52:26 0.000130805
79 *39:29 *52:26 0.000107658
*RES
1 *326:Y *52:10 41.3557 
2 *52:10 *52:16 17.5479 
3 *52:16 *52:26 47.1721 
4 *52:26 *52:30 18.3143 
5 *52:30 *52:34 20.8621 
6 *52:34 *52:48 39.4871 
7 *52:48 *386:B1 23 
8 *52:34 *52:59 33.3143 
9 *52:59 *375:A1 23 
10 *52:30 *52:70 26.5586 
11 *52:70 *349:B1 24.1186 
12 *52:70 *52:89 45.5357 
13 *52:89 *52:95 31.9057 
14 *52:95 *360:B1 24.0979 
15 *52:95 *52:114 35.9421 
16 *52:114 *343:A1 38 
17 *52:26 *401:A1 23 
18 *52:16 *412:A1 23 
*END

*D_NET *53 0.000991737
*CONN
*I *328:A I *D sky130_fd_sc_hd__buf_2
*I *327:X O *D sky130_fd_sc_hd__or3b_1
*CAP
1 *328:A 0
2 *327:X 0.00038137
3 *53:8 0.00038137
4 *53:8 *337:A_N 0.000169014
5 *53:8 *337:C 5.99823e-05
*RES
1 *327:X *53:8 28.7586 
2 *53:8 *328:A 23 
*END

*D_NET *54 0.0121622
*CONN
*I *330:B I *D sky130_fd_sc_hd__nand3b_1
*I *329:A2 I *D sky130_fd_sc_hd__a21bo_1
*I *391:A2 I *D sky130_fd_sc_hd__a21oi_1
*I *404:B1 I *D sky130_fd_sc_hd__o31a_1
*I *366:B1 I *D sky130_fd_sc_hd__o41a_1
*I *345:B1 I *D sky130_fd_sc_hd__o21a_1
*I *354:A2 I *D sky130_fd_sc_hd__a21o_1
*I *377:A2 I *D sky130_fd_sc_hd__a21o_1
*I *328:X O *D sky130_fd_sc_hd__buf_2
*CAP
1 *330:B 0.000141862
2 *329:A2 1.89211e-05
3 *391:A2 0
4 *404:B1 0.000175888
5 *366:B1 0
6 *345:B1 0.000274338
7 *354:A2 0
8 *377:A2 0
9 *328:X 0.000109515
10 *54:104 0.000559282
11 *54:76 0.0012211
12 *54:43 0.000451082
13 *54:37 0.000283924
14 *54:26 0.000438152
15 *54:14 0.00139012
16 *54:12 0.00242644
17 *54:8 0.00104445
18 *329:A2 *330:A_N 3.14004e-05
19 *330:B *330:A_N 0.000159308
20 *330:B *56:14 1.05235e-05
21 *330:B *56:29 3.86731e-05
22 *330:B *125:30 0.000138299
23 *345:B1 *355:A 1.32314e-05
24 *345:B1 *117:31 0.000262703
25 *345:B1 *132:16 0.000167848
26 *404:B1 *99:46 0.000115282
27 *404:B1 *120:31 0.000102389
28 *54:8 *122:10 0
29 *54:8 *122:12 0
30 *54:8 *134:16 0.000224785
31 *54:12 *73:16 5.94677e-05
32 *54:14 *369:C1 0.000104257
33 *54:14 *73:16 9.03364e-06
34 *54:14 *81:29 0.000121151
35 *54:26 *367:B 0.000142173
36 *54:26 *377:A1 1.0241e-05
37 *54:26 *89:8 1.00634e-05
38 *54:26 *90:10 8.65248e-05
39 *54:26 *118:10 2.3172e-05
40 *54:26 *118:12 3.48854e-05
41 *54:26 *118:20 9.5876e-06
42 *54:37 *132:16 7.84832e-05
43 *54:43 *116:69 0.000181633
44 *54:43 *132:16 0.000189749
45 *54:76 *395:B 0
46 *54:76 *396:B1 2.46399e-05
47 *54:76 *81:29 6.15719e-05
48 *54:76 *88:8 1.11064e-05
49 *54:76 *88:12 0.000239487
50 *54:76 *102:27 0.000190869
51 *54:76 *112:8 1.28008e-05
52 *54:104 *330:A_N 3.12988e-05
53 *54:104 *349:A1 0.000115526
54 *54:104 *115:38 0.000100069
55 *54:104 *134:16 0.000133243
56 *54:104 *140:33 0.000193858
57 *33:10 *54:76 0.000165384
58 *34:8 *54:76 2.23884e-05
59 *52:70 *54:76 0
*RES
1 *328:X *54:8 40.9621 
2 *54:8 *54:12 21.815 
3 *54:12 *54:14 10.6264 
4 *54:14 *54:26 36.8616 
5 *54:26 *377:A2 23 
6 *54:14 *54:37 32.2579 
7 *54:37 *54:43 19.1843 
8 *54:43 *354:A2 38 
9 *54:43 *345:B1 44.4629 
10 *54:37 *366:B1 23 
11 *54:12 *54:76 33.8707 
12 *54:76 *404:B1 41.7079 
13 *54:76 *391:A2 38 
14 *54:8 *54:104 23.6637 
15 *54:104 *329:A2 23.6887 
16 *54:104 *330:B 26.4541 
*END

*D_NET *55 0.0020848
*CONN
*I *331:B I *D sky130_fd_sc_hd__and3_1
*I *332:A1 I *D sky130_fd_sc_hd__a21o_1
*I *329:X O *D sky130_fd_sc_hd__a21bo_1
*CAP
1 *331:B 0
2 *332:A1 0
3 *329:X 0.000116083
4 *55:29 0.000395793
5 *55:12 0.000468047
6 *55:8 0.000188337
7 *55:8 *122:10 6.04676e-05
8 *55:8 *125:30 0.000163858
9 *55:8 *138:20 0
10 *55:12 *58:6 0.000100069
11 *55:29 *56:29 9.62357e-06
12 *55:29 *57:8 8.59717e-05
13 *55:29 *58:6 0.000212499
14 *55:29 *62:86 0.000218748
15 *55:29 *63:42 6.42902e-05
16 *55:29 *125:30 1.01882e-06
*RES
1 *329:X *55:8 40.9621 
2 *55:8 *55:12 16.0979 
3 *55:12 *332:A1 23 
4 *55:12 *55:29 36.7321 
5 *55:29 *331:B 23 
*END

*D_NET *56 0.00128073
*CONN
*I *331:C I *D sky130_fd_sc_hd__and3_1
*I *332:A2 I *D sky130_fd_sc_hd__a21o_1
*I *330:Y O *D sky130_fd_sc_hd__nand3b_1
*CAP
1 *331:C 0
2 *332:A2 0
3 *330:Y 4.4268e-05
4 *56:29 9.48069e-05
5 *56:14 0.00017206
6 *56:6 0.000311135
7 *56:14 *125:30 7.74825e-05
8 *56:14 *138:20 0.000166318
9 *56:29 *63:42 9.20101e-05
10 *56:29 *125:30 0.000171818
11 *56:29 *138:20 9.20101e-05
12 *330:B *56:14 1.05235e-05
13 *330:B *56:29 3.86731e-05
14 *55:29 *56:29 9.62357e-06
*RES
1 *330:Y *56:6 23.6214 
2 *56:6 *56:14 33.3557 
3 *56:14 *332:A2 23 
4 *56:6 *56:29 33.5836 
5 *56:29 *331:C 23 
*END

*D_NET *57 0.000903802
*CONN
*I *333:A I *D sky130_fd_sc_hd__or2b_1
*I *344:B1 I *D sky130_fd_sc_hd__a21o_1
*I *331:X O *D sky130_fd_sc_hd__and3_1
*CAP
1 *333:A 0.000174291
2 *344:B1 7.85383e-05
3 *331:X 4.37371e-05
4 *57:10 0.000252829
5 *57:8 4.37371e-05
6 *333:A *333:B_N 5.61255e-06
7 *333:A *344:A2 4.96717e-05
8 *333:A *58:6 8.06804e-06
9 *344:B1 *344:A2 2.02517e-05
10 *344:B1 *58:6 5.50106e-05
11 *57:8 *63:42 8.60837e-05
12 *55:29 *57:8 8.59717e-05
*RES
1 *331:X *57:8 39.2014 
2 *57:8 *57:10 15 
3 *57:10 *344:B1 24.8229 
4 *57:10 *333:A 25.0507 
*END

*D_NET *58 0.00113957
*CONN
*I *333:B_N I *D sky130_fd_sc_hd__or2b_1
*I *344:A1 I *D sky130_fd_sc_hd__a21o_1
*I *332:X O *D sky130_fd_sc_hd__a21o_1
*CAP
1 *333:B_N 9.94421e-05
2 *344:A1 0
3 *332:X 0.000198699
4 *58:6 0.000298142
5 *333:B_N *344:A2 3.7877e-05
6 *58:6 *69:10 7.08448e-05
7 *58:6 *125:30 5.3304e-05
8 *333:A *333:B_N 5.61255e-06
9 *333:A *58:6 8.06804e-06
10 *344:B1 *58:6 5.50106e-05
11 *55:12 *58:6 0.000100069
12 *55:29 *58:6 0.000212499
*RES
1 *332:X *58:6 27.9093 
2 *58:6 *344:A1 23 
3 *58:6 *333:B_N 24.595 
*END

*D_NET *59 0.000759798
*CONN
*I *335:A I *D sky130_fd_sc_hd__xnor2_1
*I *333:X O *D sky130_fd_sc_hd__or2b_1
*CAP
1 *335:A 0
2 *333:X 0.000230596
3 *59:10 0.000230596
4 *59:10 *335:B 0.000138452
5 *59:10 *344:A2 1.94693e-05
6 *59:10 *65:60 0.000140684
*RES
1 *333:X *59:10 41.9564 
2 *59:10 *335:A 38 
*END

*D_NET *60 0.00125098
*CONN